 512

O	0	6.250000000000001	0
O	0	6.250000000000001	6.250000000000001
O	0	6.250000000000001	12.5
O	0	6.250000000000001	18.75
O	0	6.250000000000001	25
O	0	6.250000000000001	31.25
O	0	6.250000000000001	37.50000000000001
O	0	6.250000000000001	43.75000000000001
O	0	12.5	0
O	0	12.5	6.250000000000001
O	0	12.5	12.5
O	0	12.5	18.75
O	0	12.5	25
O	0	12.5	31.25
O	0	12.5	37.50000000000001
O	0	12.5	43.75000000000001
O	0	18.75	0
O	0	18.75	6.250000000000001
O	0	18.75	12.5
O	0	18.75	18.75
O	0	18.75	25
O	0	18.75	31.25
O	0	18.75	37.50000000000001
O	0	18.75	43.75000000000001
O	0	25	0
O	0	25	6.250000000000001
O	0	25	12.5
O	0	25	18.75
O	0	25	25
O	0	25	31.25
O	0	25	37.50000000000001
O	0	25	43.75000000000001
O	0	31.25	0
O	0	31.25	6.250000000000001
O	0	31.25	12.5
O	0	31.25	18.75
O	0	31.25	25
O	0	31.25	31.25
O	0	31.25	37.50000000000001
O	0	31.25	43.75000000000001
O	0	37.50000000000001	0
O	0	37.50000000000001	6.250000000000001
O	0	37.50000000000001	12.5
O	0	37.50000000000001	18.75
O	0	37.50000000000001	25
O	0	37.50000000000001	31.25
O	0	37.50000000000001	37.50000000000001
O	0	37.50000000000001	43.75000000000001
O	0	43.75000000000001	0
O	0	43.75000000000001	6.250000000000001
O	0	43.75000000000001	12.5
O	0	43.75000000000001	18.75
O	0	43.75000000000001	25
O	0	43.75000000000001	31.25
O	0	43.75000000000001	37.50000000000001
O	0	43.75000000000001	43.75000000000001
O	6.250000000000001	0	0
O	6.250000000000001	0	6.250000000000001
O	6.250000000000001	0	12.5
O	6.250000000000001	0	18.75
O	6.250000000000001	0	25
O	6.250000000000001	0	31.25
O	6.250000000000001	0	37.50000000000001
O	6.250000000000001	0	43.75000000000001
O	6.250000000000001	6.250000000000001	0
O	6.250000000000001	6.250000000000001	6.250000000000001
O	6.250000000000001	6.250000000000001	12.5
O	6.250000000000001	6.250000000000001	18.75
O	6.250000000000001	6.250000000000001	25
O	6.250000000000001	6.250000000000001	31.25
O	6.250000000000001	6.250000000000001	37.50000000000001
O	6.250000000000001	6.250000000000001	43.75000000000001
O	6.250000000000001	12.5	0
O	6.250000000000001	12.5	6.250000000000001
O	6.250000000000001	12.5	12.5
O	6.250000000000001	12.5	18.75
O	6.250000000000001	12.5	25
O	6.250000000000001	12.5	31.25
O	6.250000000000001	12.5	37.50000000000001
O	6.250000000000001	12.5	43.75000000000001
O	6.250000000000001	18.75	0
O	6.250000000000001	18.75	6.250000000000001
O	6.250000000000001	18.75	12.5
O	6.250000000000001	18.75	18.75
O	6.250000000000001	18.75	25
O	6.250000000000001	18.75	31.25
O	6.250000000000001	18.75	37.50000000000001
O	6.250000000000001	18.75	43.75000000000001
O	6.250000000000001	25	0
O	6.250000000000001	25	6.250000000000001
O	6.250000000000001	25	12.5
O	6.250000000000001	25	18.75
O	6.250000000000001	25	25
O	6.250000000000001	25	31.25
O	6.250000000000001	25	37.50000000000001
O	6.250000000000001	25	43.75000000000001
O	6.250000000000001	31.25	0
O	6.250000000000001	31.25	6.250000000000001
O	6.250000000000001	31.25	12.5
O	6.250000000000001	31.25	18.75
O	6.250000000000001	31.25	25
O	6.250000000000001	31.25	31.25
O	6.250000000000001	31.25	37.50000000000001
O	6.250000000000001	31.25	43.75000000000001
O	6.250000000000001	37.50000000000001	0
O	6.250000000000001	37.50000000000001	6.250000000000001
O	6.250000000000001	37.50000000000001	12.5
O	6.250000000000001	37.50000000000001	18.75
O	6.250000000000001	37.50000000000001	25
O	6.250000000000001	37.50000000000001	31.25
O	6.250000000000001	37.50000000000001	37.50000000000001
O	6.250000000000001	37.50000000000001	43.75000000000001
O	6.250000000000001	43.75000000000001	0
O	6.250000000000001	43.75000000000001	6.250000000000001
O	6.250000000000001	43.75000000000001	12.5
O	6.250000000000001	43.75000000000001	18.75
O	6.250000000000001	43.75000000000001	25
O	6.250000000000001	43.75000000000001	31.25
O	6.250000000000001	43.75000000000001	37.50000000000001
O	6.250000000000001	43.75000000000001	43.75000000000001
O	12.5	0	0
O	12.5	0	6.250000000000001
O	12.5	0	12.5
O	12.5	0	18.75
O	12.5	0	25
O	12.5	0	31.25
O	12.5	0	37.50000000000001
O	12.5	0	43.75000000000001
O	12.5	6.250000000000001	0
O	12.5	6.250000000000001	6.250000000000001
O	12.5	6.250000000000001	12.5
O	12.5	6.250000000000001	18.75
O	12.5	6.250000000000001	25
O	12.5	6.250000000000001	31.25
O	12.5	6.250000000000001	37.50000000000001
O	12.5	6.250000000000001	43.75000000000001
O	12.5	12.5	0
O	12.5	12.5	6.250000000000001
O	12.5	12.5	12.5
O	12.5	12.5	18.75
O	12.5	12.5	25
O	12.5	12.5	31.25
O	12.5	12.5	37.50000000000001
O	12.5	12.5	43.75000000000001
O	12.5	18.75	0
O	12.5	18.75	6.250000000000001
O	12.5	18.75	12.5
O	12.5	18.75	18.75
O	12.5	18.75	25
O	12.5	18.75	31.25
O	12.5	18.75	37.50000000000001
O	12.5	18.75	43.75000000000001
O	12.5	25	0
O	12.5	25	6.250000000000001
O	12.5	25	12.5
O	12.5	25	18.75
O	12.5	25	25
O	12.5	25	31.25
O	12.5	25	37.50000000000001
O	12.5	25	43.75000000000001
O	12.5	31.25	0
O	12.5	31.25	6.250000000000001
O	12.5	31.25	12.5
O	12.5	31.25	18.75
O	12.5	31.25	25
O	12.5	31.25	31.25
O	12.5	31.25	37.50000000000001
O	12.5	31.25	43.75000000000001
O	12.5	37.50000000000001	0
O	12.5	37.50000000000001	6.250000000000001
O	12.5	37.50000000000001	12.5
O	12.5	37.50000000000001	18.75
O	12.5	37.50000000000001	25
O	12.5	37.50000000000001	31.25
O	12.5	37.50000000000001	37.50000000000001
O	12.5	37.50000000000001	43.75000000000001
O	12.5	43.75000000000001	0
O	12.5	43.75000000000001	6.250000000000001
O	12.5	43.75000000000001	12.5
O	12.5	43.75000000000001	18.75
O	12.5	43.75000000000001	25
O	12.5	43.75000000000001	31.25
O	12.5	43.75000000000001	37.50000000000001
O	12.5	43.75000000000001	43.75000000000001
O	18.75	0	0
O	18.75	0	6.250000000000001
O	18.75	0	12.5
O	18.75	0	18.75
O	18.75	0	25
O	18.75	0	31.25
O	18.75	0	37.50000000000001
O	18.75	0	43.75000000000001
O	18.75	6.250000000000001	0
O	18.75	6.250000000000001	6.250000000000001
O	18.75	6.250000000000001	12.5
O	18.75	6.250000000000001	18.75
O	18.75	6.250000000000001	25
O	18.75	6.250000000000001	31.25
O	18.75	6.250000000000001	37.50000000000001
O	18.75	6.250000000000001	43.75000000000001
O	18.75	12.5	0
O	18.75	12.5	6.250000000000001
O	18.75	12.5	12.5
O	18.75	12.5	18.75
O	18.75	12.5	25
O	18.75	12.5	31.25
O	18.75	12.5	37.50000000000001
O	18.75	12.5	43.75000000000001
O	18.75	18.75	0
O	18.75	18.75	6.250000000000001
O	18.75	18.75	12.5
O	18.75	18.75	18.75
O	18.75	18.75	25
O	18.75	18.75	31.25
O	18.75	18.75	37.50000000000001
O	18.75	18.75	43.75000000000001
O	18.75	25	0
O	18.75	25	6.250000000000001
O	18.75	25	12.5
O	18.75	25	18.75
O	18.75	25	25
O	18.75	25	31.25
O	18.75	25	37.50000000000001
O	18.75	25	43.75000000000001
O	18.75	31.25	0
O	18.75	31.25	6.250000000000001
O	18.75	31.25	12.5
O	18.75	31.25	18.75
O	18.75	31.25	25
O	18.75	31.25	31.25
O	18.75	31.25	37.50000000000001
O	18.75	31.25	43.75000000000001
O	18.75	37.50000000000001	0
O	18.75	37.50000000000001	6.250000000000001
O	18.75	37.50000000000001	12.5
O	18.75	37.50000000000001	18.75
O	18.75	37.50000000000001	25
O	18.75	37.50000000000001	31.25
O	18.75	37.50000000000001	37.50000000000001
O	18.75	37.50000000000001	43.75000000000001
O	18.75	43.75000000000001	0
O	18.75	43.75000000000001	6.250000000000001
O	18.75	43.75000000000001	12.5
O	18.75	43.75000000000001	18.75
O	18.75	43.75000000000001	25
O	18.75	43.75000000000001	31.25
O	18.75	43.75000000000001	37.50000000000001
O	18.75	43.75000000000001	43.75000000000001
O	25	0	0
O	25	0	6.250000000000001
O	25	0	12.5
O	25	0	18.75
O	25	0	25
O	25	0	31.25
O	25	0	37.50000000000001
O	25	0	43.75000000000001
O	25	6.250000000000001	0
O	25	6.250000000000001	6.250000000000001
O	25	6.250000000000001	12.5
O	25	6.250000000000001	18.75
O	25	6.250000000000001	25
O	25	6.250000000000001	31.25
O	25	6.250000000000001	37.50000000000001
O	25	6.250000000000001	43.75000000000001
O	25	12.5	0
O	25	12.5	6.250000000000001
O	25	12.5	12.5
O	25	12.5	18.75
O	25	12.5	25
O	25	12.5	31.25
O	25	12.5	37.50000000000001
O	25	12.5	43.75000000000001
O	25	18.75	0
O	25	18.75	6.250000000000001
O	25	18.75	12.5
O	25	18.75	18.75
O	25	18.75	25
O	25	18.75	31.25
O	25	18.75	37.50000000000001
O	25	18.75	43.75000000000001
O	25	25	0
O	25	25	6.250000000000001
O	25	25	12.5
O	25	25	18.75
O	25	25	25
O	25	25	31.25
O	25	25	37.50000000000001
O	25	25	43.75000000000001
O	25	31.25	0
O	25	31.25	6.250000000000001
O	25	31.25	12.5
O	25	31.25	18.75
O	25	31.25	25
O	25	31.25	31.25
O	25	31.25	37.50000000000001
O	25	31.25	43.75000000000001
O	25	37.50000000000001	0
O	25	37.50000000000001	6.250000000000001
O	25	37.50000000000001	12.5
O	25	37.50000000000001	18.75
O	25	37.50000000000001	25
O	25	37.50000000000001	31.25
O	25	37.50000000000001	37.50000000000001
O	25	37.50000000000001	43.75000000000001
O	25	43.75000000000001	0
O	25	43.75000000000001	6.250000000000001
O	25	43.75000000000001	12.5
O	25	43.75000000000001	18.75
O	25	43.75000000000001	25
O	25	43.75000000000001	31.25
O	25	43.75000000000001	37.50000000000001
O	25	43.75000000000001	43.75000000000001
O	31.25	0	0
O	31.25	0	6.250000000000001
O	31.25	0	12.5
O	31.25	0	18.75
O	31.25	0	25
O	31.25	0	31.25
O	31.25	0	37.50000000000001
O	31.25	0	43.75000000000001
O	31.25	6.250000000000001	0
O	31.25	6.250000000000001	6.250000000000001
O	31.25	6.250000000000001	12.5
O	31.25	6.250000000000001	18.75
O	31.25	6.250000000000001	25
O	31.25	6.250000000000001	31.25
O	31.25	6.250000000000001	37.50000000000001
O	31.25	6.250000000000001	43.75000000000001
O	31.25	12.5	0
O	31.25	12.5	6.250000000000001
O	31.25	12.5	12.5
O	31.25	12.5	18.75
O	31.25	12.5	25
O	31.25	12.5	31.25
O	31.25	12.5	37.50000000000001
O	31.25	12.5	43.75000000000001
O	31.25	18.75	0
O	31.25	18.75	6.250000000000001
O	31.25	18.75	12.5
O	31.25	18.75	18.75
O	31.25	18.75	25
O	31.25	18.75	31.25
O	31.25	18.75	37.50000000000001
O	31.25	18.75	43.75000000000001
O	31.25	25	0
O	31.25	25	6.250000000000001
O	31.25	25	12.5
O	31.25	25	18.75
O	31.25	25	25
O	31.25	25	31.25
O	31.25	25	37.50000000000001
O	31.25	25	43.75000000000001
O	31.25	31.25	0
O	31.25	31.25	6.250000000000001
O	31.25	31.25	12.5
O	31.25	31.25	18.75
O	31.25	31.25	25
O	31.25	31.25	31.25
O	31.25	31.25	37.50000000000001
O	31.25	31.25	43.75000000000001
O	31.25	37.50000000000001	0
O	31.25	37.50000000000001	6.250000000000001
O	31.25	37.50000000000001	12.5
O	31.25	37.50000000000001	18.75
O	31.25	37.50000000000001	25
O	31.25	37.50000000000001	31.25
O	31.25	37.50000000000001	37.50000000000001
O	31.25	37.50000000000001	43.75000000000001
O	31.25	43.75000000000001	0
O	31.25	43.75000000000001	6.250000000000001
O	31.25	43.75000000000001	12.5
O	31.25	43.75000000000001	18.75
O	31.25	43.75000000000001	25
O	31.25	43.75000000000001	31.25
O	31.25	43.75000000000001	37.50000000000001
O	31.25	43.75000000000001	43.75000000000001
O	37.50000000000001	0	0
O	37.50000000000001	0	6.250000000000001
O	37.50000000000001	0	12.5
O	37.50000000000001	0	18.75
O	37.50000000000001	0	25
O	37.50000000000001	0	31.25
O	37.50000000000001	0	37.50000000000001
O	37.50000000000001	0	43.75000000000001
O	37.50000000000001	6.250000000000001	0
O	37.50000000000001	6.250000000000001	6.250000000000001
O	37.50000000000001	6.250000000000001	12.5
O	37.50000000000001	6.250000000000001	18.75
O	37.50000000000001	6.250000000000001	25
O	37.50000000000001	6.250000000000001	31.25
O	37.50000000000001	6.250000000000001	37.50000000000001
O	37.50000000000001	6.250000000000001	43.75000000000001
O	37.50000000000001	12.5	0
O	37.50000000000001	12.5	6.250000000000001
O	37.50000000000001	12.5	12.5
O	37.50000000000001	12.5	18.75
O	37.50000000000001	12.5	25
O	37.50000000000001	12.5	31.25
O	37.50000000000001	12.5	37.50000000000001
O	37.50000000000001	12.5	43.75000000000001
O	37.50000000000001	18.75	0
O	37.50000000000001	18.75	6.250000000000001
O	37.50000000000001	18.75	12.5
O	37.50000000000001	18.75	18.75
O	37.50000000000001	18.75	25
O	37.50000000000001	18.75	31.25
O	37.50000000000001	18.75	37.50000000000001
O	37.50000000000001	18.75	43.75000000000001
O	37.50000000000001	25	0
O	37.50000000000001	25	6.250000000000001
O	37.50000000000001	25	12.5
O	37.50000000000001	25	18.75
O	37.50000000000001	25	25
O	37.50000000000001	25	31.25
O	37.50000000000001	25	37.50000000000001
O	37.50000000000001	25	43.75000000000001
O	37.50000000000001	31.25	0
O	37.50000000000001	31.25	6.250000000000001
O	37.50000000000001	31.25	12.5
O	37.50000000000001	31.25	18.75
O	37.50000000000001	31.25	25
O	37.50000000000001	31.25	31.25
O	37.50000000000001	31.25	37.50000000000001
O	37.50000000000001	31.25	43.75000000000001
O	37.50000000000001	37.50000000000001	0
O	37.50000000000001	37.50000000000001	6.250000000000001
O	37.50000000000001	37.50000000000001	12.5
O	37.50000000000001	37.50000000000001	18.75
O	37.50000000000001	37.50000000000001	25
O	37.50000000000001	37.50000000000001	31.25
O	37.50000000000001	37.50000000000001	37.50000000000001
O	37.50000000000001	37.50000000000001	43.75000000000001
O	37.50000000000001	43.75000000000001	0
O	37.50000000000001	43.75000000000001	6.250000000000001
O	37.50000000000001	43.75000000000001	12.5
O	37.50000000000001	43.75000000000001	18.75
O	37.50000000000001	43.75000000000001	25
O	37.50000000000001	43.75000000000001	31.25
O	37.50000000000001	43.75000000000001	37.50000000000001
O	37.50000000000001	43.75000000000001	43.75000000000001
O	43.75000000000001	0	0
O	43.75000000000001	0	6.250000000000001
O	43.75000000000001	0	12.5
O	43.75000000000001	0	18.75
O	43.75000000000001	0	25
O	43.75000000000001	0	31.25
O	43.75000000000001	0	37.50000000000001
O	43.75000000000001	0	43.75000000000001
O	43.75000000000001	6.250000000000001	0
O	43.75000000000001	6.250000000000001	6.250000000000001
O	43.75000000000001	6.250000000000001	12.5
O	43.75000000000001	6.250000000000001	18.75
O	43.75000000000001	6.250000000000001	25
O	43.75000000000001	6.250000000000001	31.25
O	43.75000000000001	6.250000000000001	37.50000000000001
O	43.75000000000001	6.250000000000001	43.75000000000001
O	43.75000000000001	12.5	0
O	43.75000000000001	12.5	6.250000000000001
O	43.75000000000001	12.5	12.5
O	43.75000000000001	12.5	18.75
O	43.75000000000001	12.5	25
O	43.75000000000001	12.5	31.25
O	43.75000000000001	12.5	37.50000000000001
O	43.75000000000001	12.5	43.75000000000001
O	43.75000000000001	18.75	0
O	43.75000000000001	18.75	6.250000000000001
O	43.75000000000001	18.75	12.5
O	43.75000000000001	18.75	18.75
O	43.75000000000001	18.75	25
O	43.75000000000001	18.75	31.25
O	43.75000000000001	18.75	37.50000000000001
O	43.75000000000001	18.75	43.75000000000001
O	43.75000000000001	25	0
O	43.75000000000001	25	6.250000000000001
O	43.75000000000001	25	12.5
O	43.75000000000001	25	18.75
O	43.75000000000001	25	25
O	43.75000000000001	25	31.25
O	43.75000000000001	25	37.50000000000001
O	43.75000000000001	25	43.75000000000001
O	43.75000000000001	31.25	0
O	43.75000000000001	31.25	6.250000000000001
O	43.75000000000001	31.25	12.5
O	43.75000000000001	31.25	18.75
O	43.75000000000001	31.25	25
O	43.75000000000001	31.25	31.25
O	43.75000000000001	31.25	37.50000000000001
O	43.75000000000001	31.25	43.75000000000001
O	43.75000000000001	37.50000000000001	0
O	43.75000000000001	37.50000000000001	6.250000000000001
O	43.75000000000001	37.50000000000001	12.5
O	43.75000000000001	37.50000000000001	18.75
O	43.75000000000001	37.50000000000001	25
O	43.75000000000001	37.50000000000001	31.25
O	43.75000000000001	37.50000000000001	37.50000000000001
O	43.75000000000001	37.50000000000001	43.75000000000001
O	43.75000000000001	43.75000000000001	0
O	43.75000000000001	43.75000000000001	6.250000000000001
O	43.75000000000001	43.75000000000001	12.5
O	43.75000000000001	43.75000000000001	18.75
O	43.75000000000001	43.75000000000001	25
O	43.75000000000001	43.75000000000001	31.25
O	43.75000000000001	43.75000000000001	37.50000000000001
O	43.75000000000001	43.75000000000001	43.75000000000001
O	0	0	0
O	0	0	6.250000000000001
O	0	0	12.5
O	0	0	18.75
O	0	0	25
O	0	0	31.25
O	0	0	37.50000000000001
O	0	0	43.75000000000001
O	0	6.250000000000001	0
O	0	6.250000000000001	6.250000000000001
O	0	6.250000000000001	12.5
O	0	6.250000000000001	18.75
O	0	6.250000000000001	25
O	0	6.250000000000001	31.25
O	0	6.250000000000001	37.50000000000001
O	0	6.250000000000001	43.75000000000001
O	0	12.5	0
O	0	12.5	6.250000000000001
O	0	12.5	12.5
O	0	12.5	18.75
O	0	12.5	25
O	0	12.5	31.25
O	0	12.5	37.50000000000001
O	0	12.5	43.75000000000001
O	0	18.75	0
O	0	18.75	6.250000000000001
O	0	18.75	12.5
O	0	18.75	18.75
O	0	18.75	25
O	0	18.75	31.25
O	0	18.75	37.50000000000001
O	0	18.75	43.75000000000001
O	0	25	0
O	0	25	6.250000000000001
O	0	25	12.5
O	0	25	18.75
O	0	25	25
O	0	25	31.25
O	0	25	37.50000000000001
O	0	25	43.75000000000001
O	0	31.25	0
O	0	31.25	6.250000000000001
O	0	31.25	12.5
O	0	31.25	18.75
O	0	31.25	25
O	0	31.25	31.25
O	0	31.25	37.50000000000001
O	0	31.25	43.75000000000001
O	0	37.50000000000001	0
O	0	37.50000000000001	6.250000000000001
O	0	37.50000000000001	12.5
O	0	37.50000000000001	18.75
O	0	37.50000000000001	25
O	0	37.50000000000001	31.25
O	0	37.50000000000001	37.50000000000001
O	0	37.50000000000001	43.75000000000001
O	0	43.75000000000001	0
O	0	43.75000000000001	6.250000000000001
O	0	43.75000000000001	12.5
O	0	43.75000000000001	18.75
O	0	43.75000000000001	25
O	0	43.75000000000001	31.25
O	0	43.75000000000001	37.50000000000001
O	0	43.75000000000001	43.75000000000001
O	6.250000000000001	0	0
O	6.250000000000001	0	6.250000000000001
O	6.250000000000001	0	12.5
O	6.250000000000001	0	18.75
O	6.250000000000001	0	25
O	6.250000000000001	0	31.25
O	6.250000000000001	0	37.50000000000001
O	6.250000000000001	0	43.75000000000001
O	6.250000000000001	6.250000000000001	0
O	6.250000000000001	6.250000000000001	6.250000000000001
O	6.250000000000001	6.250000000000001	12.5
O	6.250000000000001	6.250000000000001	18.75
O	6.250000000000001	6.250000000000001	25
O	6.250000000000001	6.250000000000001	31.25
O	6.250000000000001	6.250000000000001	37.50000000000001
O	6.250000000000001	6.250000000000001	43.75000000000001
O	6.250000000000001	12.5	0
O	6.250000000000001	12.5	6.250000000000001
O	6.250000000000001	12.5	12.5
O	6.250000000000001	12.5	18.75
O	6.250000000000001	12.5	25
O	6.250000000000001	12.5	31.25
O	6.250000000000001	12.5	37.50000000000001
O	6.250000000000001	12.5	43.75000000000001
O	6.250000000000001	18.75	0
O	6.250000000000001	18.75	6.250000000000001
O	6.250000000000001	18.75	12.5
O	6.250000000000001	18.75	18.75
O	6.250000000000001	18.75	25
O	6.250000000000001	18.75	31.25
O	6.250000000000001	18.75	37.50000000000001
O	6.250000000000001	18.75	43.75000000000001
O	6.250000000000001	25	0
O	6.250000000000001	25	6.250000000000001
O	6.250000000000001	25	12.5
O	6.250000000000001	25	18.75
O	6.250000000000001	25	25
O	6.250000000000001	25	31.25
O	6.250000000000001	25	37.50000000000001
O	6.250000000000001	25	43.75000000000001
O	6.250000000000001	31.25	0
O	6.250000000000001	31.25	6.250000000000001
O	6.250000000000001	31.25	12.5
O	6.250000000000001	31.25	18.75
O	6.250000000000001	31.25	25
O	6.250000000000001	31.25	31.25
O	6.250000000000001	31.25	37.50000000000001
O	6.250000000000001	31.25	43.75000000000001
O	6.250000000000001	37.50000000000001	0
O	6.250000000000001	37.50000000000001	6.250000000000001
O	6.250000000000001	37.50000000000001	12.5
O	6.250000000000001	37.50000000000001	18.75
O	6.250000000000001	37.50000000000001	25
O	6.250000000000001	37.50000000000001	31.25
O	6.250000000000001	37.50000000000001	37.50000000000001
O	6.250000000000001	37.50000000000001	43.75000000000001
O	6.250000000000001	43.75000000000001	0
O	6.250000000000001	43.75000000000001	6.250000000000001
O	6.250000000000001	43.75000000000001	12.5
O	6.250000000000001	43.75000000000001	18.75
O	6.250000000000001	43.75000000000001	25
O	6.250000000000001	43.75000000000001	31.25
O	6.250000000000001	43.75000000000001	37.50000000000001
O	6.250000000000001	43.75000000000001	43.75000000000001
O	12.5	0	0
O	12.5	0	6.250000000000001
O	12.5	0	12.5
O	12.5	0	18.75
O	12.5	0	25
O	12.5	0	31.25
O	12.5	0	37.50000000000001
O	12.5	0	43.75000000000001
O	12.5	6.250000000000001	0
O	12.5	6.250000000000001	6.250000000000001
O	12.5	6.250000000000001	12.5
O	12.5	6.250000000000001	18.75
O	12.5	6.250000000000001	25
O	12.5	6.250000000000001	31.25
O	12.5	6.250000000000001	37.50000000000001
O	12.5	6.250000000000001	43.75000000000001
O	12.5	12.5	0
O	12.5	12.5	6.250000000000001
O	12.5	12.5	12.5
O	12.5	12.5	18.75
O	12.5	12.5	25
O	12.5	12.5	31.25
O	12.5	12.5	37.50000000000001
O	12.5	12.5	43.75000000000001
O	12.5	18.75	0
O	12.5	18.75	6.250000000000001
O	12.5	18.75	12.5
O	12.5	18.75	18.75
O	12.5	18.75	25
O	12.5	18.75	31.25
O	12.5	18.75	37.50000000000001
O	12.5	18.75	43.75000000000001
O	12.5	25	0
O	12.5	25	6.250000000000001
O	12.5	25	12.5
O	12.5	25	18.75
O	12.5	25	25
O	12.5	25	31.25
O	12.5	25	37.50000000000001
O	12.5	25	43.75000000000001
O	12.5	31.25	0
O	12.5	31.25	6.250000000000001
O	12.5	31.25	12.5
O	12.5	31.25	18.75
O	12.5	31.25	25
O	8.558244331999795	23.57537260911212	19.69910472151782
O	12.5	31.25	37.50000000000001
O	12.5	31.25	43.75000000000001
O	12.5	37.50000000000001	0
O	12.5	37.50000000000001	6.250000000000001
O	12.5	37.50000000000001	12.5
O	12.5	37.50000000000001	18.75
O	12.5	37.50000000000001	25
O	12.5	37.50000000000001	31.25
O	12.5	37.50000000000001	37.50000000000001
O	12.5	37.50000000000001	43.75000000000001
O	12.5	43.75000000000001	0
O	12.5	43.75000000000001	6.250000000000001
O	12.5	43.75000000000001	12.5
O	12.5	43.75000000000001	18.75
O	12.5	43.75000000000001	25
O	12.5	43.75000000000001	31.25
O	12.5	43.75000000000001	37.50000000000001
O	12.5	43.75000000000001	43.75000000000001
O	18.75	0	0
O	18.75	0	6.250000000000001
O	18.75	0	12.5
O	18.75	0	18.75
O	18.75	0	25
O	18.75	0	31.25
O	18.75	0	37.50000000000001
O	18.75	0	43.75000000000001
O	18.75	6.250000000000001	0
O	18.75	6.250000000000001	6.250000000000001
O	18.75	6.250000000000001	12.5
O	18.75	6.250000000000001	18.75
O	18.75	6.250000000000001	25
O	18.75	6.250000000000001	31.25
O	18.75	6.250000000000001	37.50000000000001
O	18.75	6.250000000000001	43.75000000000001
O	18.75	12.5	0
O	18.75	12.5	6.250000000000001
O	18.75	12.5	12.5
O	18.75	12.5	18.75
O	18.75	12.5	25
O	18.75	12.5	31.25
O	18.75	12.5	37.50000000000001
O	18.75	12.5	43.75000000000001
O	18.75	18.75	0
O	18.75	18.75	6.250000000000001
O	18.75	18.75	12.5
O	18.75	18.75	18.75
O	18.75	18.75	25
O	18.75	18.75	31.25
O	18.75	18.75	37.50000000000001
O	18.75	18.75	43.75000000000001
O	18.75	25	0
O	18.75	25	6.250000000000001
O	18.75	25	12.5
O	18.75	25	18.75
O	18.75	25	25
O	18.75	25	31.25
O	18.75	25	37.50000000000001
O	18.75	25	43.75000000000001
O	18.75	31.25	0
O	18.75	31.25	6.250000000000001
O	18.75	31.25	12.5
O	18.75	31.25	18.75
O	18.75	31.25	25
O	18.75	31.25	31.25
O	18.75	31.25	37.50000000000001
O	18.75	31.25	43.75000000000001
O	18.75	37.50000000000001	0
O	18.75	37.50000000000001	6.250000000000001
O	18.75	37.50000000000001	12.5
O	18.75	37.50000000000001	18.75
O	18.75	37.50000000000001	25
O	18.75	37.50000000000001	31.25
O	18.75	37.50000000000001	37.50000000000001
O	18.75	37.50000000000001	43.75000000000001
O	18.75	43.75000000000001	0
O	18.75	43.75000000000001	6.250000000000001
O	18.75	43.75000000000001	12.5
O	18.75	43.75000000000001	18.75
O	18.75	43.75000000000001	25
O	18.75	43.75000000000001	31.25
O	18.75	43.75000000000001	37.50000000000001
O	18.75	43.75000000000001	43.75000000000001
O	25	0	0
O	25	0	6.250000000000001
O	25	0	12.5
O	25	0	18.75
O	25	0	25
O	25	0	31.25
O	25	0	37.50000000000001
O	25	0	43.75000000000001
O	25	6.250000000000001	0
O	25	6.250000000000001	6.250000000000001
O	25	6.250000000000001	12.5
O	25	6.250000000000001	18.75
O	25	6.250000000000001	25
O	25	6.250000000000001	31.25
O	25	6.250000000000001	37.50000000000001
O	25	6.250000000000001	43.75000000000001
O	25	12.5	0
O	25	12.5	6.250000000000001
O	25	12.5	12.5
O	25	12.5	18.75
O	25	12.5	25
O	25	12.5	31.25
O	25	12.5	37.50000000000001
O	25	12.5	43.75000000000001
O	25	18.75	0
O	25	18.75	6.250000000000001
O	25	18.75	12.5
O	25	18.75	18.75
O	25	18.75	25
O	25	18.75	31.25
O	25	18.75	37.50000000000001
O	25	18.75	43.75000000000001
O	25	25	0
O	25	25	6.250000000000001
O	25	25	12.5
O	25	25	18.75
O	25	25	25
O	25	25	31.25
O	25	25	37.50000000000001
O	25	25	43.75000000000001
O	25	31.25	0
O	25	31.25	6.250000000000001
O	25	31.25	12.5
O	25	31.25	18.75
O	25	31.25	25
O	25	31.25	31.25
O	25	31.25	37.50000000000001
O	25	31.25	43.75000000000001
O	25	37.50000000000001	0
O	25	37.50000000000001	6.250000000000001
O	25	37.50000000000001	12.5
O	25	37.50000000000001	18.75
O	25	37.50000000000001	25
O	25	37.50000000000001	31.25
O	25	37.50000000000001	37.50000000000001
O	25	37.50000000000001	43.75000000000001
O	25	43.75000000000001	0
O	25	43.75000000000001	6.250000000000001
O	25	43.75000000000001	12.5
O	25	43.75000000000001	18.75
O	25	43.75000000000001	25
O	25	43.75000000000001	31.25
O	25	43.75000000000001	37.50000000000001
O	25	43.75000000000001	43.75000000000001
O	31.25	0	0
O	31.25	0	6.250000000000001
O	31.25	0	12.5
O	31.25	0	18.75
O	31.25	0	25
O	31.25	0	31.25
O	31.25	0	37.50000000000001
O	31.25	0	43.75000000000001
O	31.25	6.250000000000001	0
O	31.25	6.250000000000001	6.250000000000001
O	31.25	6.250000000000001	12.5
O	31.25	6.250000000000001	18.75
O	31.25	6.250000000000001	25
O	31.25	6.250000000000001	31.25
O	31.25	6.250000000000001	37.50000000000001
O	31.25	6.250000000000001	43.75000000000001
O	31.25	12.5	0
O	31.25	12.5	6.250000000000001
O	31.25	12.5	12.5
O	31.25	12.5	18.75
O	31.25	12.5	25
O	31.25	12.5	31.25
O	31.25	12.5	37.50000000000001
O	31.25	12.5	43.75000000000001
O	31.25	18.75	0
O	31.25	18.75	6.250000000000001
O	31.25	18.75	12.5
O	31.25	18.75	18.75
O	31.25	18.75	25
O	31.25	18.75	31.25
O	31.25	18.75	37.50000000000001
O	31.25	18.75	43.75000000000001
O	31.25	25	0
O	31.25	25	6.250000000000001
O	31.25	25	12.5
O	31.25	25	18.75
O	31.25	25	25
O	31.25	25	31.25
O	31.25	25	37.50000000000001
O	31.25	25	43.75000000000001
O	31.25	31.25	0
O	31.25	31.25	6.250000000000001
O	31.25	31.25	12.5
O	31.25	31.25	18.75
O	31.25	31.25	25
O	31.25	31.25	31.25
O	31.25	31.25	37.50000000000001
O	31.25	31.25	43.75000000000001
O	31.25	37.50000000000001	0
O	31.25	37.50000000000001	6.250000000000001
O	31.25	37.50000000000001	12.5
O	31.25	37.50000000000001	18.75
O	31.25	37.50000000000001	25
O	31.25	37.50000000000001	31.25
O	31.25	37.50000000000001	37.50000000000001
O	31.25	37.50000000000001	43.75000000000001
O	31.25	43.75000000000001	0
O	31.25	43.75000000000001	6.250000000000001
O	31.25	43.75000000000001	12.5
O	31.25	43.75000000000001	18.75
O	31.25	43.75000000000001	25
O	31.25	43.75000000000001	31.25
O	31.25	43.75000000000001	37.50000000000001
O	31.25	43.75000000000001	43.75000000000001
O	37.50000000000001	0	0
O	37.50000000000001	0	6.250000000000001
O	37.50000000000001	0	12.5
O	37.50000000000001	0	18.75
O	37.50000000000001	0	25
O	37.50000000000001	0	31.25
O	37.50000000000001	0	37.50000000000001
O	37.50000000000001	0	43.75000000000001
O	37.50000000000001	6.250000000000001	0
O	37.50000000000001	6.250000000000001	6.250000000000001
O	37.50000000000001	6.250000000000001	12.5
O	37.50000000000001	6.250000000000001	18.75
O	37.50000000000001	6.250000000000001	25
O	37.50000000000001	6.250000000000001	31.25
O	37.50000000000001	6.250000000000001	37.50000000000001
O	37.50000000000001	6.250000000000001	43.75000000000001
O	37.50000000000001	12.5	0
O	37.50000000000001	12.5	6.250000000000001
O	37.50000000000001	12.5	12.5
O	37.50000000000001	12.5	18.75
O	37.50000000000001	12.5	25
O	37.50000000000001	12.5	31.25
O	37.50000000000001	12.5	37.50000000000001
O	37.50000000000001	12.5	43.75000000000001
O	37.50000000000001	18.75	0
O	37.50000000000001	18.75	6.250000000000001
O	37.50000000000001	18.75	12.5
O	37.50000000000001	18.75	18.75
O	37.50000000000001	18.75	25
O	37.50000000000001	18.75	31.25
O	37.50000000000001	18.75	37.50000000000001
O	37.50000000000001	18.75	43.75000000000001
O	37.50000000000001	25	0
O	37.50000000000001	25	6.250000000000001
O	37.50000000000001	25	12.5
O	37.50000000000001	25	18.75
O	37.50000000000001	25	25
O	37.50000000000001	25	31.25
O	37.50000000000001	25	37.50000000000001
O	37.50000000000001	25	43.75000000000001
O	37.50000000000001	31.25	0
O	37.50000000000001	31.25	6.250000000000001
O	37.50000000000001	31.25	12.5
O	37.50000000000001	31.25	18.75
O	37.50000000000001	31.25	25
O	37.50000000000001	31.25	31.25
O	37.50000000000001	31.25	37.50000000000001
O	37.50000000000001	31.25	43.75000000000001
O	37.50000000000001	37.50000000000001	0
O	37.50000000000001	37.50000000000001	6.250000000000001
O	37.50000000000001	37.50000000000001	12.5
O	37.50000000000001	37.50000000000001	18.75
O	37.50000000000001	37.50000000000001	25
O	37.50000000000001	37.50000000000001	31.25
O	37.50000000000001	37.50000000000001	37.50000000000001
O	37.50000000000001	37.50000000000001	43.75000000000001
O	37.50000000000001	43.75000000000001	0
O	37.50000000000001	43.75000000000001	6.250000000000001
O	37.50000000000001	43.75000000000001	12.5
O	37.50000000000001	43.75000000000001	18.75
O	37.50000000000001	43.75000000000001	25
O	37.50000000000001	43.75000000000001	31.25
O	37.50000000000001	43.75000000000001	37.50000000000001
O	37.50000000000001	43.75000000000001	43.75000000000001
O	43.75000000000001	0	0
O	43.75000000000001	0	6.250000000000001
O	43.75000000000001	0	12.5
O	43.75000000000001	0	18.75
O	43.75000000000001	0	25
O	43.75000000000001	0	31.25
O	43.75000000000001	0	37.50000000000001
O	43.75000000000001	0	43.75000000000001
O	43.75000000000001	6.250000000000001	0
O	43.75000000000001	6.250000000000001	6.250000000000001
O	43.75000000000001	6.250000000000001	12.5
O	43.75000000000001	6.250000000000001	18.75
O	43.75000000000001	6.250000000000001	25
O	43.75000000000001	6.250000000000001	31.25
O	43.75000000000001	6.250000000000001	37.50000000000001
O	43.75000000000001	6.250000000000001	43.75000000000001
O	43.75000000000001	12.5	0
O	43.75000000000001	12.5	6.250000000000001
O	43.75000000000001	12.5	12.5
O	43.75000000000001	12.5	18.75
O	43.75000000000001	12.5	25
O	43.75000000000001	12.5	31.25
O	43.75000000000001	12.5	37.50000000000001
O	43.75000000000001	12.5	43.75000000000001
O	43.75000000000001	18.75	0
O	43.75000000000001	18.75	6.250000000000001
O	43.75000000000001	18.75	12.5
O	43.75000000000001	18.75	18.75
O	43.75000000000001	18.75	25
O	43.75000000000001	18.75	31.25
O	43.75000000000001	18.75	37.50000000000001
O	43.75000000000001	18.75	43.75000000000001
O	43.75000000000001	25	0
O	43.75000000000001	25	6.250000000000001
O	43.75000000000001	25	12.5
O	43.75000000000001	25	18.75
O	43.75000000000001	25	25
O	43.75000000000001	25	31.25
O	43.75000000000001	25	37.50000000000001
O	43.75000000000001	25	43.75000000000001
O	43.75000000000001	31.25	0
O	43.75000000000001	31.25	6.250000000000001
O	43.75000000000001	31.25	12.5
O	43.75000000000001	31.25	18.75
O	43.75000000000001	31.25	25
O	43.75000000000001	31.25	31.25
O	43.75000000000001	31.25	37.50000000000001
O	43.75000000000001	31.25	43.75000000000001
O	43.75000000000001	37.50000000000001	0
O	43.75000000000001	37.50000000000001	6.250000000000001
O	43.75000000000001	37.50000000000001	12.5
O	43.75000000000001	37.50000000000001	18.75
O	43.75000000000001	37.50000000000001	25
O	43.75000000000001	37.50000000000001	31.25
O	43.75000000000001	37.50000000000001	37.50000000000001
O	43.75000000000001	37.50000000000001	43.75000000000001
O	43.75000000000001	43.75000000000001	0
O	43.75000000000001	43.75000000000001	6.250000000000001
O	43.75000000000001	43.75000000000001	12.5
O	43.75000000000001	43.75000000000001	18.75
O	43.75000000000001	43.75000000000001	25
O	43.75000000000001	43.75000000000001	31.25
O	43.75000000000001	43.75000000000001	37.50000000000001
O	43.75000000000001	43.75000000000001	43.75000000000001
